#*#asus1987#*#
+MANGEL+mangel
.hbqybrjkftdbx
000756150caleb
01047589144qaz
010777ljvbybrf
0122140752asdf
0123456789viny
01609796019251
02061984qwerty
0304Schokolade
030780rogdenij
0526024668tame
053029051998mb
07030900790nwa
08041985moussa
09051989Elvira
0957848555vlad
0973537715vova
100209042210qw
10125465mariya
120566rockHuds
121212platesmm
123123d-e-lena
123123nur_ay92
1234567890awsd
12345678913579
123456789gamer
123456789tae55
12345devilxccx
1234folienzelt
12388453276038
123Anothersite
123amatoRy321a
123perdefan321
123qwe85674yha
123qweomiq45p5
12DECEMBRIE199
130598shbyjxrf
13061995daniel
14011986zydfhm
140972controls
15214jefferson
1567447536mgcc
15975345sofa98
171288q171500q
17971gelbwurst
1879321123456Q
19101910xp1910
19101991vfhbyf
19700917sajith
19764942josber
19783508764**-
198627943657aA
19921994shamil
199506v199506v
1qay2wsx3edc4r
1qaz2wsx3edcZX
20015998343868
200663944musab
20122003alisa4
2021993koslove
21081993kimsan
2114227ba8y339
212082748471ct
23077gasmanjer
23102002nikita
234JKJ98HJkkjr
24011217831983
24061985vitaly
24626346324483
2480569012jhon
25846735sergio
264209nishizhu
270604mgAG1234
271wadozzza271
282010alyona12
2832898ice1234
28768893lancer
29031992leksus
34125861253486
3421alessandro
3456553r500649
35425170298max
369133neira568
38348539vfhbyf
3lymp_H7d68_56
3z3r42qyt1q123
413141schastie
426426sinigami
4851246markito
4hEwrebR4Q7S5q
52651912102003
526aaaf6193d6b
56709698302918
58565254yfnfkb
5c5b33631174a4
654375654375aa
715613516a4312
753951852456/y
77531917753191
77718041977666
7854100leonard
789456123lucim
79.218.216.113
867jk110i00jok
8787a39d130art
88363893102zxc
8888888888ivan
89048252178sss
89057593767den
9128571586vera
93080404687fel
93381685712345
9876543210pira
9993908zevybwf
9AjUhaSYtYGanE
9UXeWuQyqaSYBA
AMCoffice1234+
AZyGaPivyDA136
AeroDynamic_58
AjlinAndre2021
Andalusien2010
Anthony1ZX3D56
Arcomeinhund01
Atom-SAAL2020?
Backenzahn54!!
Billingham0204
Bretten220293.
Brunotommy1967
BuzzerBeater14
CES-TMM-410840
Casablancas123
Christina28109
Cool100girl300
DesireeJanik12
DragonLover201
DuqU7YpAZUnE9a
DurUpe7e5ynUpa
DyRu$etaRePA#E
EternalHunters
FHillebrandt@t
Ferienhaus6543
Franzwelthe123
Funkelperle16!
GiFOkEdopOb084
Glasperlen1962
HESOYAmPidrMAX
HYLUXa5ySAtuMY
Hamidmahmood60
Hardworker1987
Heavymetal1984
IgorPankov3107
Japanese.Manga
KAWAVuLOTuN657
KORCAKOVA25055
Kabelweg1997!!
Karmic00haze00
KatjaHolger_77
Khodayri1994zx
Kim1308054123&
KingdomHearts3
Kirschkuchen15
Knubbelchen76!
Koeln.00136340
Kudayur_060876
Lehoanghai1996
Leonora7910569
Lisenok5834532
MAT11rus103VEY
MaddyNewtshome
Mall#circle100
Manchester1996
Manchester2011
MaxonD-boy2000
Mein-freemail1
Mondejar123456
MyRyDutUdATE2E
Nadija18061993
Nemesis.200588
Olgalinda0321.
Oliverpeter199
Osamudiamen123
Pascalantonio9
Perrit01832123
Philanthropist
Photoshop1!123
Picklesnot8000
PrOmUdOm317038
PriisonXbb!123
ProfessorSnape
Qwerty1231996Q
ROD214559IONOF
Reitpferdblau1
Reutherstrasse
Rose2002ZX3D56
RunForestRun11
SLIPKNOT666999
Saft1234567890
Schnuggimaus98
Schuelervz3301
Silent_666_tru
SlayKiller1997
SpagettiKeller
Spuc3tty123123
Stivi152199444
Sunderland1993
SydneyRoosters
T28Z74Lb92DANo
TEAMO15SHIZURU
Tinkerbell_Rox
Tom12345tom12q
VItali01801001
VWPASSAT3B2018
Vanya358Lis0vy
Weihnachten123
Whyhellothere1
Wolfteam422002
XWXQWXFEKHIASe
Y5agypYrYHYqub
Youngmulababy1
Zafiragest1310
Zavrentiy13666
[email]bassett
______________
a4uQYhE5UNeHU3
aaaaaanik_879a
abc123bemorsen
ablativus87rus
abramov0709198
adlane4ever200
adrien04071992
ajnurkapkenowa
akrapovic.duke
alecksander123
alex.heinze123
alexalex000000
alexeysatsuk10
alice110919840
alinka56235623
alldayonmamind
allihavetogive
alperenalperen
amazingcontent
americaforever
anastasiya2008
andre12CABRITA
andreaguillope
andreajsark994
andreamountgay
andreanirvana1
andrewRechu123
andreysalnikov
andreytopknot1
angelika.erika
angelpussycat1
animeandnaruto
annabanana0567
anthonyirmonte
anthonypauline
armado24020122
arsenalklaud13
artem2002artem
aryan123456789
asdfgllvmr2016
asdfgtmdvv2016
ashleyAA2779nf
ashleymokomoko
avx1523lvampir
b5mnstreetteam
banditmarxmarx
bannerrohling!
barbariska1965
barsik86-86-86
barsilonia2005
baseballdick25
basketball2589
batmanakropoli
batmanazanglis
batmangenius75
becauseisaidso
bedb0110b011b0
benedictus1976
benomainge1008
berlin-spandau
berniebergib04
bertelsman2007
betraechtliche
bigdogblacklon
bigdreamer1965
bintangbintang
blackshoot1504
bmwe3025101984
bogdanvoda2345
bonginator2703
botizowxuj1967
bottonibottega
bryanchiou1651
buddydhd123123
buitengewesten
bunt895icon987
busterfalcon33
busterlandtech
butterfly92102
c1e2z3o4h5a6n7
c2apex12345678
california2012
canseancansean
carolina100995
caroline123456
caseys_layouts
cauchi_luke123
cbynfrcbxtcrbq
cemprotech1988
cfvceyuunc3650
chaliserry1214
characteristic
charmedcharmed
cheburashka999
cheeseomesh456
chrisgrim34071
christinaethel
chujciwdupe123
cjrehtyrjbujhm
ckfdzycrbqirfa
clayton1996800
clidoro8502115
cnfrfy20092009
cocacola010102
constantino123
cookieGIASONE5
cookiebrian156
cookiemirobora
cookiewhirpool
cricketcricket
cristiansala10
cruelladerio12
cuatrodeldos42
cvfk832rjaa143
dallasTEBGIULI
dallasrobert33
dallassemwgsch
daneczek557551
daniel71555773
daniellogos717
dark495rosy201
davidisthebest
davidmoore160!
dddduygu8duygu
dean123dean123
deboracristina
defender112233
deniska1991102
desenhoanimado
dfhe.djyfrbkvb
diablofyrevooo
diamondmouse12
diana123987654
die2lustiegen3
diegoarmando10
difference1982
dima4815162342
dirk.offermann
domodossola195
dontcallmegaga
dortmund1994q!
dracosoccer199
dragon2samurai
dragonmaster18
dragonslayer14
drawthebestof1
driv3rdipsstof
drub236fend656
dthfybrjkftdyf
dumbarseblonde
duvalramirez16
dzxtckfd492529
e240avantguard
eatbabies58791
ecirtappatrice
elia-nicki2004
elisabeth-anna
ellendegeneres
engelchen46347
envynounette89
epgvz827gwhy82
erkanfadime01!
eskanderun5570
esterwegen1995
estidamayanti1
eusougatinha12
fabian_mata199
fabiolandreina
facebook123456
faithinthelord
familieberigte
fddvsdsxfss123
fdsfgersfgserf
fernandorafael
ferrarimargo-m
filhadaputa123
fireswordsman7
fluffy1scruffy
fluminense2015
flyingpanda123
fomichsolu2909
footballnahlik
footballrich79
foreverautumn1
franziiloveyou
freckls1234567
freelancer1974
frischebrise91
froggy@neutron
frostymcnugget
fuckingorgeous
fuckmezoro1965
fuckyougizmo-z
fuerteventura1
fuhjtrjkjuybrj
fuhjyjvbxtcrfz
fuvefodwor1953
gardenmaster94
geburtstag2907
genevamountain
gfdtkcthuttdbx
gfifbkblf32427
ghbtlecfhvtybb
ghjgjhwbbbb515
ghostrecon1992
gilserberg2007
gina7826nguyen
ginaortizsuare
gingerLex_2106
gingerratzfatz
givenchy240524
gjkbyfyjdbrjdf
goatmilkcom345
god25951690231
godirirboc1967
gokillyourself
gotohell545ul3
grammar4Christ
grossesalade95
gurusebfis1976
hagofthebridge
hamburg170953!
hamzasarwar916
hannapiispanen
happybirthday3
have716chow247
hellmaster1982
helpru89913021
hideokojima321
hidupbisnis123
hlpl]7988ilhgd
hmong123456789
hockeythxthx99
holly123456789
holyghostpower
homosalamander
honeybadger309
hovno123456789
ibnahcsschanbi
icecreamfreeze
ichliebetim100
id1707856375id
ihorklimko4367
ilovepinzip198
ingrid21273096
iroman07054106
isenG2306Doank
iwasborn121290
izabella199315
j3jj3007khajal
jackson2526245
jaffapalestine
jamieundclaire
jane_love_aldr
janine-sefzig1
jasonbrivers12
jay09282381820
jcinductivo258
jessicagunnels
jesuschristus1
jimorrison0902
jinimeyer1305_
joannabferrell
john@yahoo.com
johnson1234567
jordandridri59
jordankarkor69
jordanneatcomm
joshuaKonflikt
joshuajonlow11
joshuamnparth1
justinrasha_ra
k2quar2aonam3A
katherine.byrd
kejibejjun1985
khaganikhagani
killerbillyinc
killerewj2wj45
kirschkuchen02
kissenschlacht
kkjess108rsyme
kleinerdonner3
koksinfilip555
kopchenujbekij
kosty1998kosty
ktcz3012vfhbfv
kufofebvod1961
kupiraigor1304
kwsjbTgC119123
l2o0r2e2d0a2n0
lafaye.richard
lasola22121205
latengodurayqu
latinlover__01
laurabeatriz27
lehfwrbqgfhjkm
lenalena458693
lenin502136122
letmeinJUSTASK
letourdefrance
lfybkf19982611
liipolajohanna
lisaverena1992
lj1212am1515ap
logaaronzitolo
londonhide19bc
love323098live
love666hate666
lovinggrace_23
lucagulian1974
maggiecutebaby
makingirlsmoan
makmak34labort
maks9063050586
maksim04032002
maksim11021983
malayafirienna
manchesterl0v3
mangochutney65
manondemeijere
marcellosync45
marcus19882018
markanov291186
marselegui2710
martin-gennies
mastercheckit!
matrix30111988
matthewbmw_kim
maximilian1150
mcdonald195577
mchedlishvilip
mediacreator57
medicalphysics
mehmet-aydin77
menschenkind10
merciseigneur_
metropolis0803
michaelmrsbad4
michelle000000
michellekatrin
michelletscamp
microstar12377
millie12ZX3D56
mining1woodcut
minumero9esees
mmoadacmmo0907
mnmnm2009mnmnm
mo2ydo3gqxriny
mohdzainiendut
mohmedrap12345
moigeneralseka
momdad1234ever
mommysharon122
monkeyXenos523
monkeydluffy17
monkeymr.error
monopoliocambi
monster1234567
monsterenergy1
moonse7enmabel
morpheus687775
morskaiaduscha
mothergoose123
motherlode2015
motocross64122
mountaindew666
mrazrealestate
mrd2008vbadmin
mujermaravilla
murmur888lol25
myanmarpoem007
mylifeisperfec
mz.williams313
nfdhbz262rus86
ngoctrieu123iu
nguyenduyvuong
nguyenphonggso
nicatelekberov
nicolasrego121
nika2210as2010
nikispeedy7171
nikita06112009
nikita60902286
nikkinicole221
nikolaysmirnov
ningbowanjin11
noellecurel123
nsvytyhfdbimcz
nuraibalou1994
oaschlo1234554
obanayobana666
oleolaziga1488
otonashiyuzuru
owenwhitfield1
p1a2p3p4o5l6o7
pallyssonpaulo
parkurrost2000
passepartout66
passworaglet_1
password1dpcop
passwords12345
passworragnosm
passworwhitt45
pcd1234pcd1234
pembunuh2008to
pepperplethora
persijajakarta
phenergan500ml
phoenixacer123
phoenixsoonae1
pickpick357412
pietrogattino1
pikekids195207
pinkpanther123
pionerroma1996
playboyforever
poesislief1937
pokachontes005
polina19072013
polina_vlasova
polpabarino222
poppy123456789
prakrishna2004
primeravez2612
princessbtlbtl
pro100zina2011
puglisimaria86
pulli12pulli12
pulsanpulsa123
puppyluver1998
q8lpn6yaooolle
qazwsx3b3k9y89
qianqian214214
qwert1994yuiop
qwerty20041990
qwerzxcv476716
qweszxc7895123
r0dr160b3rt3l1
rainyreality1!
rangerschateau
rangerssahil18
re689za16u56di
renata12011979
renjer93939147
reperkleper147
repmgjnrepmgjn
rfhfgekmrfashr
rhbcnbyjxrf651
ricardo2246052
rick841swat211
roadrunner1234
robertlawrence
robertmikelima
robertslaya666
rodrigopereira
rolingpotter98
rookie23PARNAS
roubicekariana
rs123ecommerce
ruhrpottstyler
rulerofknights
ruslan11072007
ruslan11611292
rusugoqziy1977
ryanjones15675
s1a2m3s4u5n6g7
sYda#Yry5UHUVy
sakurauchiha58
salihamidzic16
samuel03112004
sanara31055600
sangraalmasson
sankmutilator2
sanq1478963258
sanshana2007ra
sashaborisenko
sbkoksaray2010
scooterjim1992
scootermaldfox
seLuhyHY%Yza%e
seekingfriends
sekosepjic1972
sevishpictures
shadow280191??
shadowdeamon72
shadowknight15
shadowmetalman
shamanking1337
sharmie-fishie
shelagugulo949
signu540$13.13
skateboarding8
skazka19890904
slayerMISTY123
slayermarcus92
smartsurfer123
snowboard4ever
snowboarding12
sokolova140980
solnyshkov2991
soluciones1978
sonic123456789
sorofedwoj1974
soulmatehelper
sparkyScissors
spetnaz9121987
spez7621904619
ss444444444444
starwarspreeky
stefan15091980
stivenernesto1
storeonline123
strangestrange
streettormozzz
sugopagomatteo
suknickar10000
sunshinemk3333
supamanthash1T
superherosquad
superhollow909
supermanmdef86
syadeyskayath1
syeeng84601184
sylviadrift240
tablieutenip24
takeshitakeshi
taniadrian6210
taresa_beckett
tatyana7231073
tcbgjdffdlttdf
te06necesito06
tecpersbondage
tel89047736403
telltale352035
temik2011temik
tenorsaxophone
teresavial1141
teufelchen1988
texasholdem123
thaymarques16.
theturtledance
theusparksband
thisissorandom
thisrockbottom
thunderbiglake
thunderfloppet
tiffaneycarter
tigersAvixir69
tiggercapitan1
tiggermanubleu
tom15975324865
totenpfahl@yah
townlakeaustin
trailofthought
transsibiria07
travisinthered
trio902news324
tristaff123362
trustno1jimmxx
tuBETaqYmUju2Y
twothirtythree
ueptkmu1111992
ulquiorracifer
ultr1s42380277
v011vazaz0744z
vadim987654321
variable200184
vaseline071987
vbkfyfabkfnjdf
vertexzz170892
vicent_7963291
vicongdongmang
victor.tarasov
vida3017210230
vin80676079485
vince2204laeti
vitall24011990
vitya199408vdv
vivaliebtmich1
vivituqruz1988
vjcrfktyrj1983
voluptuous6679
vtyzpjdenktkbr
w-e-n-x-i-a-98
watforddroftaw
wegweiserin123
welcomebullets
welcomedoggydo
williamplayota
winni-maa22857
wogogovvup1964
xbox360FTW5326
xequpojzig1986
yTE3Ysa4E3YNE2
yearofthetiger
yfcnzfktyf2010
yfuksqptabh098
yinlijin198512
yks17505231562
yoendri1993802
yolcufenerli29
yoshydaniyoshy
ytcNTher221943
yugepuhfik1957
yulyanedaivoda
zaicevaalek123
zakaryan198625
zha798186jialp
zhangzihuan664
zhekalavrentev
zivcdj3ocaloon
zizizizi125125
zking279432718
zlyer331755711
znakomstva2011
znepbdfba56be3
zombie_nation3
